
Circuit: testje

Doing analysis at TEMP = 27.000000 and TNOM = 27.000000


No. of Data Rows : 1
	Node                                  Voltage
	----                                  -------
	----	-------
	V(5)                             -2.00000e+00
	V(4)                             -5.00000e+00
	V(3)                             -2.00000e-01
	V(2)                             4.000000e+00
	V(1)                             8.000000e+00

	Source	Current
	------	-------

	v1#branch                        -2.00000e+00
	v2#branch                        -1.00000e+00

 Resistor models (Simple linear resistor)
      model                     R

        rsh                     0
     narrow                     0
      short                     0
        tc1                     0
        tc2                     0
        tce                     0
       defw                 1e-05
          l                 1e-05
         kf                     0
         af                     0
          r                     0
     bv_max                 1e+99
         lf                     1
         wf                     1
         ef                     1

 Isource: Independent current source
     device                    i1
         dc                     1
          m                     1
      acmag                     0
      pulse         -
        sin         -
        exp         -
        pwl         -
       sffm         -
         am         -
    trnoise         -
   trrandom         -
          v                  -4.2
          p                   4.2
    current                     1

 Resistor: Simple linear resistor
     device                    r5                    r4                    r3
      model                     R                     R                     R
 resistance                    15                     9                     6
         ac                    15                     9                     6
      dtemp                     0                     0                     0
     bv_max                 1e+99                 1e+99                 1e+99
      noisy                     1                     1                     1
          i                   0.2                   0.2                   0.8
          p                   0.6                  0.36                  3.84

 Resistor: Simple linear resistor
     device                    r2                    r1
      model                     R                     R
 resistance                     4                     2
         ac                     4                     2
      dtemp                     0                     0
     bv_max                 1e+99                 1e+99
      noisy                     1                     1
          i                     1                     2
          p                     4                     8

 Vsource: Independent voltage source
     device                    v2                    v1
         dc                     5                     8
      acmag                     0                     0
      pulse         -         -
        sin         -         -
        exp         -         -
        pwl         -         -
       sffm         -         -
         am         -         -
    trnoise         -         -
   trrandom         -         -
          i                    -1                    -2
          p                     5                    16

CPU time since last call: 0.024 seconds.

Total CPU time: 0.024 seconds.

Total DRAM available = 3906.187500 MB.
DRAM currently available = 174.750000 MB.
Total ngspice program size = 16.792969 MB.
Resident set size = 2.110352 MB.
Shared ngspice pages = 1.826172 MB.
Text (code) pages = 1.597656 MB.
Stack = 0 bytes.
Library pages = 423.000 kB.

